powerfulcases/cases/matpower/case136ma/case136ma.raw
0, 10, 33, 0, 0, 60  / 28-Jan-2026 21:50:33 - MATPOWER 8.1


     1, 'BUS 1       ',      13.8, 3,    1,    1, 1,           1,           0, 1.05, 0.95, 1.05, 0.95
     2, 'BUS 2       ',      13.8, 1,    1,    1, 1,           1,           0, 1.05, 0.95, 1.05, 0.95
     3, 'BUS 3       ',      13.8, 1,    1,    1, 1,           1,           0, 1.05, 0.95, 1.05, 0.95
     4, 'BUS 4       ',      13.8, 1,    1,    1, 1,           1,           0, 1.05, 0.95, 1.05, 0.95
     5, 'BUS 5       ',      13.8, 1,    1,    1, 1,           1,           0, 1.05, 0.95, 1.05, 0.95
     6, 'BUS 6       ',      13.8, 1,    1,    1, 1,           1,           0, 1.05, 0.95, 1.05, 0.95
     7, 'BUS 7       ',      13.8, 1,    1,    1, 1,           1,           0, 1.05, 0.95, 1.05, 0.95
     8, 'BUS 8       ',      13.8, 1,    1,    1, 1,           1,           0, 1.05, 0.95, 1.05, 0.95
     9, 'BUS 9       ',      13.8, 1,    1,    1, 1,           1,           0, 1.05, 0.95, 1.05, 0.95
    10, 'BUS 10      ',      13.8, 1,    1,    1, 1,           1,           0, 1.05, 0.95, 1.05, 0.95
    11, 'BUS 11      ',      13.8, 1,    1,    1, 1,           1,           0, 1.05, 0.95, 1.05, 0.95
    12, 'BUS 12      ',      13.8, 1,    1,    1, 1,           1,           0, 1.05, 0.95, 1.05, 0.95
    13, 'BUS 13      ',      13.8, 1,    1,    1, 1,           1,           0, 1.05, 0.95, 1.05, 0.95
    14, 'BUS 14      ',      13.8, 1,    1,    1, 1,           1,           0, 1.05, 0.95, 1.05, 0.95
    15, 'BUS 15      ',      13.8, 1,    1,    1, 1,           1,           0, 1.05, 0.95, 1.05, 0.95
    16, 'BUS 16      ',      13.8, 1,    1,    1, 1,           1,           0, 1.05, 0.95, 1.05, 0.95
    17, 'BUS 17      ',      13.8, 1,    1,    1, 1,           1,           0, 1.05, 0.95, 1.05, 0.95
    18, 'BUS 18      ',      13.8, 1,    1,    1, 1,           1,           0, 1.05, 0.95, 1.05, 0.95
    19, 'BUS 19      ',      13.8, 1,    1,    1, 1,           1,           0, 1.05, 0.95, 1.05, 0.95
    20, 'BUS 20      ',      13.8, 1,    1,    1, 1,           1,           0, 1.05, 0.95, 1.05, 0.95
    21, 'BUS 21      ',      13.8, 1,    1,    1, 1,           1,           0, 1.05, 0.95, 1.05, 0.95
    22, 'BUS 22      ',      13.8, 1,    1,    1, 1,           1,           0, 1.05, 0.95, 1.05, 0.95
    23, 'BUS 23      ',      13.8, 1,    1,    1, 1,           1,           0, 1.05, 0.95, 1.05, 0.95
    24, 'BUS 24      ',      13.8, 1,    1,    1, 1,           1,           0, 1.05, 0.95, 1.05, 0.95
    25, 'BUS 25      ',      13.8, 1,    1,    1, 1,           1,           0, 1.05, 0.95, 1.05, 0.95
    26, 'BUS 26      ',      13.8, 1,    1,    1, 1,           1,           0, 1.05, 0.95, 1.05, 0.95
    27, 'BUS 27      ',      13.8, 1,    1,    1, 1,           1,           0, 1.05, 0.95, 1.05, 0.95
    28, 'BUS 28      ',      13.8, 1,    1,    1, 1,           1,           0, 1.05, 0.95, 1.05, 0.95
    29, 'BUS 29      ',      13.8, 1,    1,    1, 1,           1,           0, 1.05, 0.95, 1.05, 0.95
    30, 'BUS 30      ',      13.8, 1,    1,    1, 1,           1,           0, 1.05, 0.95, 1.05, 0.95
    31, 'BUS 31      ',      13.8, 1,    1,    1, 1,           1,           0, 1.05, 0.95, 1.05, 0.95
    32, 'BUS 32      ',      13.8, 1,    1,    1, 1,           1,           0, 1.05, 0.95, 1.05, 0.95
    33, 'BUS 33      ',      13.8, 1,    1,    1, 1,           1,           0, 1.05, 0.95, 1.05, 0.95
    34, 'BUS 34      ',      13.8, 1,    1,    1, 1,           1,           0, 1.05, 0.95, 1.05, 0.95
    35, 'BUS 35      ',      13.8, 1,    1,    1, 1,           1,           0, 1.05, 0.95, 1.05, 0.95
    36, 'BUS 36      ',      13.8, 1,    1,    1, 1,           1,           0, 1.05, 0.95, 1.05, 0.95
    37, 'BUS 37      ',      13.8, 1,    1,    1, 1,           1,           0, 1.05, 0.95, 1.05, 0.95
    38, 'BUS 38      ',      13.8, 1,    1,    1, 1,           1,           0, 1.05, 0.95, 1.05, 0.95
    39, 'BUS 39      ',      13.8, 1,    1,    1, 1,           1,           0, 1.05, 0.95, 1.05, 0.95
    40, 'BUS 40      ',      13.8, 1,    1,    1, 1,           1,           0, 1.05, 0.95, 1.05, 0.95
    41, 'BUS 41      ',      13.8, 1,    1,    1, 1,           1,           0, 1.05, 0.95, 1.05, 0.95
    42, 'BUS 42      ',      13.8, 1,    1,    1, 1,           1,           0, 1.05, 0.95, 1.05, 0.95
    43, 'BUS 43      ',      13.8, 1,    1,    1, 1,           1,           0, 1.05, 0.95, 1.05, 0.95
    44, 'BUS 44      ',      13.8, 1,    1,    1, 1,           1,           0, 1.05, 0.95, 1.05, 0.95
    45, 'BUS 45      ',      13.8, 1,    1,    1, 1,           1,           0, 1.05, 0.95, 1.05, 0.95
    46, 'BUS 46      ',      13.8, 1,    1,    1, 1,           1,           0, 1.05, 0.95, 1.05, 0.95
    47, 'BUS 47      ',      13.8, 1,    1,    1, 1,           1,           0, 1.05, 0.95, 1.05, 0.95
    48, 'BUS 48      ',      13.8, 1,    1,    1, 1,           1,           0, 1.05, 0.95, 1.05, 0.95
    49, 'BUS 49      ',      13.8, 1,    1,    1, 1,           1,           0, 1.05, 0.95, 1.05, 0.95
    50, 'BUS 50      ',      13.8, 1,    1,    1, 1,           1,           0, 1.05, 0.95, 1.05, 0.95
    51, 'BUS 51      ',      13.8, 1,    1,    1, 1,           1,           0, 1.05, 0.95, 1.05, 0.95
    52, 'BUS 52      ',      13.8, 1,    1,    1, 1,           1,           0, 1.05, 0.95, 1.05, 0.95
    53, 'BUS 53      ',      13.8, 1,    1,    1, 1,           1,           0, 1.05, 0.95, 1.05, 0.95
    54, 'BUS 54      ',      13.8, 1,    1,    1, 1,           1,           0, 1.05, 0.95, 1.05, 0.95
    55, 'BUS 55      ',      13.8, 1,    1,    1, 1,           1,           0, 1.05, 0.95, 1.05, 0.95
    56, 'BUS 56      ',      13.8, 1,    1,    1, 1,           1,           0, 1.05, 0.95, 1.05, 0.95
    57, 'BUS 57      ',      13.8, 1,    1,    1, 1,           1,           0, 1.05, 0.95, 1.05, 0.95
    58, 'BUS 58      ',      13.8, 1,    1,    1, 1,           1,           0, 1.05, 0.95, 1.05, 0.95
    59, 'BUS 59      ',      13.8, 1,    1,    1, 1,           1,           0, 1.05, 0.95, 1.05, 0.95
    60, 'BUS 60      ',      13.8, 1,    1,    1, 1,           1,           0, 1.05, 0.95, 1.05, 0.95
    61, 'BUS 61      ',      13.8, 1,    1,    1, 1,           1,           0, 1.05, 0.95, 1.05, 0.95
    62, 'BUS 62      ',      13.8, 1,    1,    1, 1,           1,           0, 1.05, 0.95, 1.05, 0.95
    63, 'BUS 63      ',      13.8, 1,    1,    1, 1,           1,           0, 1.05, 0.95, 1.05, 0.95
    64, 'BUS 64      ',      13.8, 1,    1,    1, 1,           1,           0, 1.05, 0.95, 1.05, 0.95
    65, 'BUS 65      ',      13.8, 1,    1,    1, 1,           1,           0, 1.05, 0.95, 1.05, 0.95
    66, 'BUS 66      ',      13.8, 1,    1,    1, 1,           1,           0, 1.05, 0.95, 1.05, 0.95
    67, 'BUS 67      ',      13.8, 1,    1,    1, 1,           1,           0, 1.05, 0.95, 1.05, 0.95
    68, 'BUS 68      ',      13.8, 1,    1,    1, 1,           1,           0, 1.05, 0.95, 1.05, 0.95
    69, 'BUS 69      ',      13.8, 1,    1,    1, 1,           1,           0, 1.05, 0.95, 1.05, 0.95
    70, 'BUS 70      ',      13.8, 1,    1,    1, 1,           1,           0, 1.05, 0.95, 1.05, 0.95
    71, 'BUS 71      ',      13.8, 1,    1,    1, 1,           1,           0, 1.05, 0.95, 1.05, 0.95
    72, 'BUS 72      ',      13.8, 1,    1,    1, 1,           1,           0, 1.05, 0.95, 1.05, 0.95
    73, 'BUS 73      ',      13.8, 1,    1,    1, 1,           1,           0, 1.05, 0.95, 1.05, 0.95
    74, 'BUS 74      ',      13.8, 1,    1,    1, 1,           1,           0, 1.05, 0.95, 1.05, 0.95
    75, 'BUS 75      ',      13.8, 1,    1,    1, 1,           1,           0, 1.05, 0.95, 1.05, 0.95
    76, 'BUS 76      ',      13.8, 1,    1,    1, 1,           1,           0, 1.05, 0.95, 1.05, 0.95
    77, 'BUS 77      ',      13.8, 1,    1,    1, 1,           1,           0, 1.05, 0.95, 1.05, 0.95
    78, 'BUS 78      ',      13.8, 1,    1,    1, 1,           1,           0, 1.05, 0.95, 1.05, 0.95
    79, 'BUS 79      ',      13.8, 1,    1,    1, 1,           1,           0, 1.05, 0.95, 1.05, 0.95
    80, 'BUS 80      ',      13.8, 1,    1,    1, 1,           1,           0, 1.05, 0.95, 1.05, 0.95
    81, 'BUS 81      ',      13.8, 1,    1,    1, 1,           1,           0, 1.05, 0.95, 1.05, 0.95
    82, 'BUS 82      ',      13.8, 1,    1,    1, 1,           1,           0, 1.05, 0.95, 1.05, 0.95
    83, 'BUS 83      ',      13.8, 1,    1,    1, 1,           1,           0, 1.05, 0.95, 1.05, 0.95
    84, 'BUS 84      ',      13.8, 1,    1,    1, 1,           1,           0, 1.05, 0.95, 1.05, 0.95
    85, 'BUS 85      ',      13.8, 1,    1,    1, 1,           1,           0, 1.05, 0.95, 1.05, 0.95
    86, 'BUS 86      ',      13.8, 1,    1,    1, 1,           1,           0, 1.05, 0.95, 1.05, 0.95
    87, 'BUS 87      ',      13.8, 1,    1,    1, 1,           1,           0, 1.05, 0.95, 1.05, 0.95
    88, 'BUS 88      ',      13.8, 1,    1,    1, 1,           1,           0, 1.05, 0.95, 1.05, 0.95
    89, 'BUS 89      ',      13.8, 1,    1,    1, 1,           1,           0, 1.05, 0.95, 1.05, 0.95
    90, 'BUS 90      ',      13.8, 1,    1,    1, 1,           1,           0, 1.05, 0.95, 1.05, 0.95
    91, 'BUS 91      ',      13.8, 1,    1,    1, 1,           1,           0, 1.05, 0.95, 1.05, 0.95
    92, 'BUS 92      ',      13.8, 1,    1,    1, 1,           1,           0, 1.05, 0.95, 1.05, 0.95
    93, 'BUS 93      ',      13.8, 1,    1,    1, 1,           1,           0, 1.05, 0.95, 1.05, 0.95
    94, 'BUS 94      ',      13.8, 1,    1,    1, 1,           1,           0, 1.05, 0.95, 1.05, 0.95
    95, 'BUS 95      ',      13.8, 1,    1,    1, 1,           1,           0, 1.05, 0.95, 1.05, 0.95
    96, 'BUS 96      ',      13.8, 1,    1,    1, 1,           1,           0, 1.05, 0.95, 1.05, 0.95
    97, 'BUS 97      ',      13.8, 1,    1,    1, 1,           1,           0, 1.05, 0.95, 1.05, 0.95
    98, 'BUS 98      ',      13.8, 1,    1,    1, 1,           1,           0, 1.05, 0.95, 1.05, 0.95
    99, 'BUS 99      ',      13.8, 1,    1,    1, 1,           1,           0, 1.05, 0.95, 1.05, 0.95
   100, 'BUS 100     ',      13.8, 1,    1,    1, 1,           1,           0, 1.05, 0.95, 1.05, 0.95
   101, 'BUS 101     ',      13.8, 1,    1,    1, 1,           1,           0, 1.05, 0.95, 1.05, 0.95
   102, 'BUS 102     ',      13.8, 1,    1,    1, 1,           1,           0, 1.05, 0.95, 1.05, 0.95
   103, 'BUS 103     ',      13.8, 1,    1,    1, 1,           1,           0, 1.05, 0.95, 1.05, 0.95
   104, 'BUS 104     ',      13.8, 1,    1,    1, 1,           1,           0, 1.05, 0.95, 1.05, 0.95
   105, 'BUS 105     ',      13.8, 1,    1,    1, 1,           1,           0, 1.05, 0.95, 1.05, 0.95
   106, 'BUS 106     ',      13.8, 1,    1,    1, 1,           1,           0, 1.05, 0.95, 1.05, 0.95
   107, 'BUS 107     ',      13.8, 1,    1,    1, 1,           1,           0, 1.05, 0.95, 1.05, 0.95
   108, 'BUS 108     ',      13.8, 1,    1,    1, 1,           1,           0, 1.05, 0.95, 1.05, 0.95
   109, 'BUS 109     ',      13.8, 1,    1,    1, 1,           1,           0, 1.05, 0.95, 1.05, 0.95
   110, 'BUS 110     ',      13.8, 1,    1,    1, 1,           1,           0, 1.05, 0.95, 1.05, 0.95
   111, 'BUS 111     ',      13.8, 1,    1,    1, 1,           1,           0, 1.05, 0.95, 1.05, 0.95
   112, 'BUS 112     ',      13.8, 1,    1,    1, 1,           1,           0, 1.05, 0.95, 1.05, 0.95
   113, 'BUS 113     ',      13.8, 1,    1,    1, 1,           1,           0, 1.05, 0.95, 1.05, 0.95
   114, 'BUS 114     ',      13.8, 1,    1,    1, 1,           1,           0, 1.05, 0.95, 1.05, 0.95
   115, 'BUS 115     ',      13.8, 1,    1,    1, 1,           1,           0, 1.05, 0.95, 1.05, 0.95
   116, 'BUS 116     ',      13.8, 1,    1,    1, 1,           1,           0, 1.05, 0.95, 1.05, 0.95
   117, 'BUS 117     ',      13.8, 1,    1,    1, 1,           1,           0, 1.05, 0.95, 1.05, 0.95
   118, 'BUS 118     ',      13.8, 1,    1,    1, 1,           1,           0, 1.05, 0.95, 1.05, 0.95
   119, 'BUS 119     ',      13.8, 1,    1,    1, 1,           1,           0, 1.05, 0.95, 1.05, 0.95
   120, 'BUS 120     ',      13.8, 1,    1,    1, 1,           1,           0, 1.05, 0.95, 1.05, 0.95
   121, 'BUS 121     ',      13.8, 1,    1,    1, 1,           1,           0, 1.05, 0.95, 1.05, 0.95
   122, 'BUS 122     ',      13.8, 1,    1,    1, 1,           1,           0, 1.05, 0.95, 1.05, 0.95
   123, 'BUS 123     ',      13.8, 1,    1,    1, 1,           1,           0, 1.05, 0.95, 1.05, 0.95
   124, 'BUS 124     ',      13.8, 1,    1,    1, 1,           1,           0, 1.05, 0.95, 1.05, 0.95
   125, 'BUS 125     ',      13.8, 1,    1,    1, 1,           1,           0, 1.05, 0.95, 1.05, 0.95
   126, 'BUS 126     ',      13.8, 1,    1,    1, 1,           1,           0, 1.05, 0.95, 1.05, 0.95
   127, 'BUS 127     ',      13.8, 1,    1,    1, 1,           1,           0, 1.05, 0.95, 1.05, 0.95
   128, 'BUS 128     ',      13.8, 1,    1,    1, 1,           1,           0, 1.05, 0.95, 1.05, 0.95
   129, 'BUS 129     ',      13.8, 1,    1,    1, 1,           1,           0, 1.05, 0.95, 1.05, 0.95
   130, 'BUS 130     ',      13.8, 1,    1,    1, 1,           1,           0, 1.05, 0.95, 1.05, 0.95
   131, 'BUS 131     ',      13.8, 1,    1,    1, 1,           1,           0, 1.05, 0.95, 1.05, 0.95
   132, 'BUS 132     ',      13.8, 1,    1,    1, 1,           1,           0, 1.05, 0.95, 1.05, 0.95
   133, 'BUS 133     ',      13.8, 1,    1,    1, 1,           1,           0, 1.05, 0.95, 1.05, 0.95
   134, 'BUS 134     ',      13.8, 1,    1,    1, 1,           1,           0, 1.05, 0.95, 1.05, 0.95
   135, 'BUS 135     ',      13.8, 1,    1,    1, 1,           1,           0, 1.05, 0.95, 1.05, 0.95
   136, 'BUS 136     ',      13.8, 1,    1,    1, 1,           1,           0, 1.05, 0.95, 1.05, 0.95
0 / END OF BUS DATA, BEGIN LOAD DATA
     3,  1, 1,    1,    1,   0.04778,   0.01901, 0, 0, 0, 0, 1, 1, 0
     4,  1, 1,    1,    1,   0.04255,   0.01693, 0, 0, 0, 0, 1, 1, 0
     5,  1, 1,    1,    1,   0.08702,   0.03462, 0, 0, 0, 0, 1, 1, 0
     6,  1, 1,    1,    1,   0.31131,  0.123855, 0, 0, 0, 0, 1, 1, 0
     7,  1, 1,    1,    1,  0.148869,   0.05923, 0, 0, 0, 0, 1, 1, 0
     8,  1, 1,    1,    1,  0.238672,   0.09496, 0, 0, 0, 0, 1, 1, 0
     9,  1, 1,    1,    1,    0.0623,   0.02479, 0, 0, 0, 0, 1, 1, 0
    10,  1, 1,    1,    1,  0.124598,   0.04957, 0, 0, 0, 0, 1, 1, 0
    11,  1, 1,    1,    1,  0.140175,   0.05577, 0, 0, 0, 0, 1, 1, 0
    12,  1, 1,    1,    1,  0.116813,   0.04647, 0, 0, 0, 0, 1, 1, 0
    13,  1, 1,    1,    1,  0.249203,   0.09915, 0, 0, 0, 0, 1, 1, 0
    14,  1, 1,    1,    1,  0.291447,  0.115952, 0, 0, 0, 0, 1, 1, 0
    15,  1, 1,    1,    1,   0.30372,  0.120835, 0, 0, 0, 0, 1, 1, 0
    16,  1, 1,    1,    1,  0.215396,    0.0857, 0, 0, 0, 0, 1, 1, 0
    17,  1, 1,    1,    1,  0.198586,   0.07901, 0, 0, 0, 0, 1, 1, 0
    21,  1, 1,    1,    1,   0.03013,   0.01473, 0, 0, 0, 0, 1, 1, 0
    22,  1, 1,    1,    1,  0.230972,   0.11292, 0, 0, 0, 0, 1, 1, 0
    23,  1, 1,    1,    1,   0.06026,   0.02946, 0, 0, 0, 0, 1, 1, 0
    24,  1, 1,    1,    1,  0.230972,   0.11292, 0, 0, 0, 0, 1, 1, 0
    25,  1, 1,    1,    1,  0.120507,   0.05892, 0, 0, 0, 0, 1, 1, 0
    27,  1, 1,    1,    1,   0.05698,   0.02786, 0, 0, 0, 0, 1, 1, 0
    28,  1, 1,    1,    1,  0.364665,  0.178281, 0, 0, 0, 0, 1, 1, 0
    30,  1, 1,    1,    1,  0.124647,   0.06094, 0, 0, 0, 0, 1, 1, 0
    31,  1, 1,    1,    1,   0.05698,   0.02786, 0, 0, 0, 0, 1, 1, 0
    33,  1, 1,    1,    1,   0.08547,   0.04179, 0, 0, 0, 0, 1, 1, 0
    35,  1, 1,    1,    1,  0.396735,   0.19396, 0, 0, 0, 0, 1, 1, 0
    37,  1, 1,    1,    1,  0.181152,   0.08856, 0, 0, 0, 0, 1, 1, 0
    38,  1, 1,    1,    1,  0.242172,  0.118395, 0, 0, 0, 0, 1, 1, 0
    39,  1, 1,    1,    1,   0.07532,   0.03682, 0, 0, 0, 0, 1, 1, 0
    41,  1, 1,    1,    1,   0.00125,   0.00053, 0, 0, 0, 0, 1, 1, 0
    42,  1, 1,    1,    1,   0.00627,   0.00266, 0, 0, 0, 0, 1, 1, 0
    44,  1, 1,    1,    1,   0.11788,   0.04997, 0, 0, 0, 0, 1, 1, 0
    45,  1, 1,    1,    1,   0.06267,   0.02657, 0, 0, 0, 0, 1, 1, 0
    46,  1, 1,    1,    1,  0.172285,   0.07303, 0, 0, 0, 0, 1, 1, 0
    47,  1, 1,    1,    1,  0.458556,  0.194388, 0, 0, 0, 0, 1, 1, 0
    48,  1, 1,    1,    1,  0.262962,  0.111473, 0, 0, 0, 0, 1, 1, 0
    49,  1, 1,    1,    1,  0.235761,   0.09994, 0, 0, 0, 0, 1, 1, 0
    51,  1, 1,    1,    1,  0.109215,    0.0463, 0, 0, 0, 0, 1, 1, 0
    53,  1, 1,    1,    1,   0.07281,   0.03087, 0, 0, 0, 0, 1, 1, 0
    54,  1, 1,    1,    1,  0.258473,   0.10957, 0, 0, 0, 0, 1, 1, 0
    55,  1, 1,    1,    1,   0.06917,   0.02932, 0, 0, 0, 0, 1, 1, 0
    56,  1, 1,    1,    1,   0.02184,   0.00926, 0, 0, 0, 0, 1, 1, 0
    58,  1, 1,    1,    1,   0.02053,    0.0087, 0, 0, 0, 0, 1, 1, 0
    59,  1, 1,    1,    1,  0.150548,   0.06382, 0, 0, 0, 0, 1, 1, 0
    60,  1, 1,    1,    1,  0.220687,   0.09355, 0, 0, 0, 0, 1, 1, 0
    61,  1, 1,    1,    1,   0.09238,   0.03916, 0, 0, 0, 0, 1, 1, 0
    63,  1, 1,    1,    1,  0.226693,    0.0961, 0, 0, 0, 0, 1, 1, 0
    65,  1, 1,    1,    1,  0.294016,  0.116974, 0, 0, 0, 0, 1, 1, 0
    66,  1, 1,    1,    1,   0.08302,   0.03303, 0, 0, 0, 0, 1, 1, 0
    67,  1, 1,    1,    1,   0.08302,   0.03303, 0, 0, 0, 0, 1, 1, 0
    68,  1, 1,    1,    1,   0.10377,   0.04129, 0, 0, 0, 0, 1, 1, 0
    69,  1, 1,    1,    1,  0.176408,   0.07018, 0, 0, 0, 0, 1, 1, 0
    70,  1, 1,    1,    1,   0.08302,   0.03303, 0, 0, 0, 0, 1, 1, 0
    71,  1, 1,    1,    1,  0.217917,    0.0867, 0, 0, 0, 0, 1, 1, 0
    72,  1, 1,    1,    1,   0.02329,   0.00927, 0, 0, 0, 0, 1, 1, 0
    73,  1, 1,    1,    1,   0.00508,   0.00202, 0, 0, 0, 0, 1, 1, 0
    74,  1, 1,    1,    1,   0.07264,    0.0289, 0, 0, 0, 0, 1, 1, 0
    75,  1, 1,    1,    1,   0.40599,  0.161523, 0, 0, 0, 0, 1, 1, 0
    77,  1, 1,    1,    1,  0.100182,   0.04247, 0, 0, 0, 0, 1, 1, 0
    78,  1, 1,    1,    1,  0.142523,   0.06042, 0, 0, 0, 0, 1, 1, 0
    79,  1, 1,    1,    1,   0.09604,   0.04071, 0, 0, 0, 0, 1, 1, 0
    80,  1, 1,    1,    1,  0.300454,  0.127366, 0, 0, 0, 0, 1, 1, 0
    81,  1, 1,    1,    1,  0.141238,   0.05987, 0, 0, 0, 0, 1, 1, 0
    82,  1, 1,    1,    1,  0.279847,  0.118631, 0, 0, 0, 0, 1, 1, 0
    83,  1, 1,    1,    1,   0.08731,   0.03701, 0, 0, 0, 0, 1, 1, 0
    84,  1, 1,    1,    1,  0.243849,  0.103371, 0, 0, 0, 0, 1, 1, 0
    85,  1, 1,    1,    1,   0.24775,  0.105025, 0, 0, 0, 0, 1, 1, 0
    87,  1, 1,    1,    1,   0.08988,    0.0381, 0, 0, 0, 0, 1, 1, 0
    88,  1, 1,    1,    1,   1.13728,  0.482108, 0, 0, 0, 0, 1, 1, 0
    89,  1, 1,    1,    1,  0.458339,  0.194296, 0, 0, 0, 0, 1, 1, 0
    90,  1, 1,    1,    1,  0.385197,   0.16329, 0, 0, 0, 0, 1, 1, 0
    92,  1, 1,    1,    1,   0.07961,   0.03375, 0, 0, 0, 0, 1, 1, 0
    93,  1, 1,    1,    1,   0.08731,   0.03701, 0, 0, 0, 0, 1, 1, 0
    95,  1, 1,    1,    1,     0.074,   0.03137, 0, 0, 0, 0, 1, 1, 0
    96,  1, 1,    1,    1,   0.23205,   0.09837, 0, 0, 0, 0, 1, 1, 0
    97,  1, 1,    1,    1,  0.141819,   0.06012, 0, 0, 0, 0, 1, 1, 0
    99,  1, 1,    1,    1,   0.07645,   0.03241, 0, 0, 0, 0, 1, 1, 0
   101,  1, 1,    1,    1,   0.05132,   0.02176, 0, 0, 0, 0, 1, 1, 0
   102,  1, 1,    1,    1,   0.05987,   0.02538, 0, 0, 0, 0, 1, 1, 0
   103,  1, 1,    1,    1,   0.00907,   0.00384, 0, 0, 0, 0, 1, 1, 0
   104,  1, 1,    1,    1,   0.00209,   0.00089, 0, 0, 0, 0, 1, 1, 0
   105,  1, 1,    1,    1,  0.016735,   0.00709, 0, 0, 0, 0, 1, 1, 0
   106,  1, 1,    1,    1,  1.506522,  0.638634, 0, 0, 0, 0, 1, 1, 0
   107,  1, 1,    1,    1,  0.313023,  0.132694, 0, 0, 0, 0, 1, 1, 0
   108,  1, 1,    1,    1,   0.07983,   0.03384, 0, 0, 0, 0, 1, 1, 0
   109,  1, 1,    1,    1,   0.05132,   0.02176, 0, 0, 0, 0, 1, 1, 0
   111,  1, 1,    1,    1,  0.202435,   0.08582, 0, 0, 0, 0, 1, 1, 0
   112,  1, 1,    1,    1,   0.06082,   0.02578, 0, 0, 0, 0, 1, 1, 0
   113,  1, 1,    1,    1,   0.04562,   0.01934, 0, 0, 0, 0, 1, 1, 0
   115,  1, 1,    1,    1,   0.15707,   0.06658, 0, 0, 0, 0, 1, 1, 0
   117,  1, 1,    1,    1,  0.250148,  0.106041, 0, 0, 0, 0, 1, 1, 0
   119,  1, 1,    1,    1,   0.06981,   0.02959, 0, 0, 0, 0, 1, 1, 0
   120,  1, 1,    1,    1,   0.03207,    0.0136, 0, 0, 0, 0, 1, 1, 0
   121,  1, 1,    1,    1,   0.06108,   0.02589, 0, 0, 0, 0, 1, 1, 0
   123,  1, 1,    1,    1,   0.09462,   0.04626, 0, 0, 0, 0, 1, 1, 0
   124,  1, 1,    1,    1,   0.04986,   0.02438, 0, 0, 0, 0, 1, 1, 0
   125,  1, 1,    1,    1,  0.123164,   0.06021, 0, 0, 0, 0, 1, 1, 0
   126,  1, 1,    1,    1,   0.07835,    0.0383, 0, 0, 0, 0, 1, 1, 0
   127,  1, 1,    1,    1,  0.145475,   0.07112, 0, 0, 0, 0, 1, 1, 0
   128,  1, 1,    1,    1,   0.02137,   0.01045, 0, 0, 0, 0, 1, 1, 0
   129,  1, 1,    1,    1,   0.07479,   0.03656, 0, 0, 0, 0, 1, 1, 0
   130,  1, 1,    1,    1,  0.227926,  0.111431, 0, 0, 0, 0, 1, 1, 0
   131,  1, 1,    1,    1,   0.03561,   0.01741, 0, 0, 0, 0, 1, 1, 0
   132,  1, 1,    1,    1,  0.249295,  0.121877, 0, 0, 0, 0, 1, 1, 0
   133,  1, 1,    1,    1,  0.316722,  0.154842, 0, 0, 0, 0, 1, 1, 0
   134,  1, 1,    1,    1,  0.333817,  0.163199, 0, 0, 0, 0, 1, 1, 0
   135,  1, 1,    1,    1,  0.249295,  0.121877, 0, 0, 0, 0, 1, 1, 0
0 / END OF LOAD DATA, BEGIN FIXED SHUNT DATA
0 / END OF FIXED SHUNT DATA, BEGIN GENERATOR DATA
     1,  1,         0,         0,        10,       -10,        1, 0,     100, 0, 1, 0, 0, 1, 1, 100,        10,         0, 1, 1, 0, 1, 0, 1, 0, 1, 0, 1
0 / END OF GENERATOR DATA, BEGIN BRANCH DATA
     1,      2, 1, 0.01743594, 0.04025047,        0,     100,     100,     100, 0, 0, 0, 0, 1, 1, 0, 1, 1, 0, 1, 0, 1, 0, 1
     2,      3, 1, 9.871876e-05, 0.0002273682,        0,     100,     100,     100, 0, 0, 0, 0, 1, 1, 0, 1, 1, 0, 1, 0, 1, 0, 1
     3,      4, 1, 0.01172233, 0.02706102,        0,     100,     100,     100, 0, 0, 0, 0, 1, 1, 0, 1, 1, 0, 1, 0, 1, 0, 1
     4,      5, 1, 0.005221067, 0.01205261,        0,     100,     100,     100, 0, 0, 0, 0, 1, 1, 0, 1, 1, 0, 1, 0, 1, 0, 1
     5,      6, 1, 0.008176329, 0.01887471,        0,     100,     100,     100, 0, 0, 0, 0, 1, 1, 0, 1, 1, 0, 1, 0, 1, 0, 1
     6,      7, 1, 0.008570153, 0.01978418,        0,     100,     100,     100, 0, 0, 0, 0, 1, 1, 0, 1, 1, 0, 1, 0, 1, 0, 1
     7,      8, 1, 0.006009242, 0.01387156,        0,     100,     100,     100, 0, 0, 0, 0, 1, 1, 0, 1, 1, 0, 1, 0, 1, 0, 1
     7,      9, 1, 0.002979941, 0.002975215,        0,     100,     100,     100, 0, 0, 0, 0, 1, 1, 0, 1, 1, 0, 1, 0, 1, 0, 1
     9,     10, 1, 0.0273703, 0.01439719,        0,     100,     100,     100, 0, 0, 0, 0, 1, 1, 0, 1, 1, 0, 1, 0, 1, 0, 1
     9,     11, 1, 0.00571151, 0.005702583,        0,     100,     100,     100, 0, 0, 0, 0, 1, 1, 0, 1, 1, 0, 1, 0, 1, 0, 1
    11,     12, 1, 0.02090055, 0.01099401,        0,     100,     100,     100, 0, 0, 0, 0, 1, 1, 0, 1, 1, 0, 1, 0, 1, 0, 1
    11,     13, 1, 0.04817475, 0.01652436,        0,     100,     100,     100, 0, 0, 0, 0, 1, 1, 0, 1, 1, 0, 1, 0, 1, 0, 1
    11,     14, 1, 0.006208255, 0.006198803,        0,     100,     100,     100, 0, 0, 0, 0, 1, 1, 0, 1, 1, 0, 1, 0, 1, 0, 1
    14,     15, 1, 0.02637471, 0.01387366,        0,     100,     100,     100, 0, 0, 0, 0, 1, 1, 0, 1, 1, 0, 1, 0, 1, 0, 1
    14,     16, 1, 0.002979941, 0.002975215,        0,     100,     100,     100, 0, 0, 0, 0, 1, 1, 0, 1, 1, 0, 1, 0, 1, 0, 1
    16,     17, 1, 0.01542691, 0.008114892,        0,     100,     100,     100, 0, 0, 0, 0, 1, 1, 0, 1, 1, 0, 1, 0, 1, 0, 1
     1,     18, 1, 0.01743594, 0.04025047,        0,     100,     100,     100, 0, 0, 0, 0, 1, 1, 0, 1, 1, 0, 1, 0, 1, 0, 1
    18,     19, 1, 9.871876e-05, 0.0002273682,        0,     100,     100,     100, 0, 0, 0, 0, 1, 1, 0, 1, 1, 0, 1, 0, 1, 0, 1
    19,     20, 1, 0.01172233, 0.02706102,        0,     100,     100,     100, 0, 0, 0, 0, 1, 1, 0, 1, 1, 0, 1, 0, 1, 0, 1
    20,     21, 1, 0.005713611, 0.01318946,        0,     100,     100,     100, 0, 0, 0, 0, 1, 1, 0, 1, 1, 0, 1, 0, 1, 0, 1
    21,     22, 1, 0.03732304, 0.01963243,        0,     100,     100,     100, 0, 0, 0, 0, 1, 1, 0, 1, 1, 0, 1, 0, 1, 0, 1
    21,     23, 1, 0.00955524, 0.02205839,        0,     100,     100,     100, 0, 0, 0, 0, 1, 1, 0, 1, 1, 0, 1, 0, 1, 0, 1
    23,     24, 1, 0.01592418, 0.008376392,        0,     100,     100,     100, 0, 0, 0, 0, 1, 1, 0, 1, 1, 0, 1, 0, 1, 0, 1
    23,     25, 1, 0.001280718, 0.002956312,        0,     100,     100,     100, 0, 0, 0, 0, 1, 1, 0, 1, 1, 0, 1, 0, 1, 0, 1
    25,     26, 1, 0.002363999, 0.005457887,        0,     100,     100,     100, 0, 0, 0, 0, 1, 1, 0, 1, 1, 0, 1, 0, 1, 0, 1
    26,     27, 1, 0.0009850872, 0.002274207,        0,     100,     100,     100, 0, 0, 0, 0, 1, 1, 0, 1, 1, 0, 1, 0, 1, 0, 1
    27,     28, 1, 0.006208255, 0.006198803,        0,     100,     100,     100, 0, 0, 0, 0, 1, 1, 0, 1, 1, 0, 1, 0, 1, 0, 1
    28,     29, 1, 0.001241861, 0.001239761,        0,     100,     100,     100, 0, 0, 0, 0, 1, 1, 0, 1, 1, 0, 1, 0, 1, 0, 1
    29,     30, 1, 0.009952741, 0.005235245,        0,     100,     100,     100, 0, 0, 0, 0, 1, 1, 0, 1, 1, 0, 1, 0, 1, 0, 1
    30,     31, 1, 0.02090055, 0.01099401,        0,     100,     100,     100, 0, 0, 0, 0, 1, 1, 0, 1, 1, 0, 1, 0, 1, 0, 1
    29,     32, 1, 0.002979941, 0.002975215,        0,     100,     100,     100, 0, 0, 0, 0, 1, 1, 0, 1, 1, 0, 1, 0, 1, 0, 1
    32,     33, 1, 0.004976371, 0.002617622,        0,     100,     100,     100, 0, 0, 0, 0, 1, 1, 0, 1, 1, 0, 1, 0, 1, 0, 1
    33,     34, 1, 0.02189614, 0.01151754,        0,     100,     100,     100, 0, 0, 0, 0, 1, 1, 0, 1, 1, 0, 1, 0, 1, 0, 1
    34,     35, 1, 0.005971435, 0.003141147,        0,     100,     100,     100, 0, 0, 0, 0, 1, 1, 0, 1, 1, 0, 1, 0, 1, 0, 1
    32,     36, 1, 0.003972905, 0.003967129,        0,     100,     100,     100, 0, 0, 0, 0, 1, 1, 0, 1, 1, 0, 1, 0, 1, 0, 1
    36,     37, 1, 0.01940769, 0.01020899,        0,     100,     100,     100, 0, 0, 0, 0, 1, 1, 0, 1, 1, 0, 1, 0, 1, 0, 1
    37,     38, 1, 0.01393405, 0.007329343,        0,     100,     100,     100, 0, 0, 0, 0, 1, 1, 0, 1, 1, 0, 1, 0, 1, 0, 1
    36,     39, 1, 0.002979941, 0.002975215,        0,     100,     100,     100, 0, 0, 0, 0, 1, 1, 0, 1, 1, 0, 1, 0, 1, 0, 1
     1,     40, 1, 0.01743594, 0.04025047,        0,     100,     100,     100, 0, 0, 0, 0, 1, 1, 0, 1, 1, 0, 1, 0, 1, 0, 1
    40,     41, 1, 0.006206154, 0.0143263,        0,     100,     100,     100, 0, 0, 0, 0, 1, 1, 0, 1, 1, 0, 1, 0, 1, 0, 1
    41,     42, 1, 0.1555808, 0.05336484,        0,     100,     100,     100, 0, 0, 0, 0, 1, 1, 0, 1, 1, 0, 1, 0, 1, 0, 1
    41,     43, 1, 9.871876e-05, 0.0002273682,        0,     100,     100,     100, 0, 0, 0, 0, 1, 1, 0, 1, 1, 0, 1, 0, 1, 0, 1
    43,     44, 1, 0.003644717, 0.008414199,        0,     100,     100,     100, 0, 0, 0, 0, 1, 1, 0, 1, 1, 0, 1, 0, 1, 0, 1
    44,     45, 1, 0.04279668, 0.02251208,        0,     100,     100,     100, 0, 0, 0, 0, 1, 1, 0, 1, 1, 0, 1, 0, 1, 0, 1
    44,     46, 1, 0.003349086, 0.007731569,        0,     100,     100,     100, 0, 0, 0, 0, 1, 1, 0, 1, 1, 0, 1, 0, 1, 0, 1
    46,     47, 1, 0.00689561, 0.0159184,        0,     100,     100,     100, 0, 0, 0, 0, 1, 1, 0, 1, 1, 0, 1, 0, 1, 0, 1
    47,     48, 1, 0.003250893, 0.007504201,        0,     100,     100,     100, 0, 0, 0, 0, 1, 1, 0, 1, 1, 0, 1, 0, 1, 0, 1
    48,     49, 1, 0.006009242, 0.01387156,        0,     100,     100,     100, 0, 0, 0, 0, 1, 1, 0, 1, 1, 0, 1, 0, 1, 0, 1
    49,     50, 1, 0.01489918, 0.0148766,        0,     100,     100,     100, 0, 0, 0, 0, 1, 1, 0, 1, 1, 0, 1, 0, 1, 0, 1
    50,     51, 1, 0.01489918, 0.0148766,        0,     100,     100,     100, 0, 0, 0, 0, 1, 1, 0, 1, 1, 0, 1, 0, 1, 0, 1
    49,     52, 1, 0.002363999, 0.005457887,        0,     100,     100,     100, 0, 0, 0, 0, 1, 1, 0, 1, 1, 0, 1, 0, 1, 0, 1
    52,     53, 1, 0.001378912, 0.00318368,        0,     100,     100,     100, 0, 0, 0, 0, 1, 1, 0, 1, 1, 0, 1, 0, 1, 0, 1
    53,     54, 1, 0.003152174, 0.007276833,        0,     100,     100,     100, 0, 0, 0, 0, 1, 1, 0, 1, 1, 0, 1, 0, 1, 0, 1
    54,     55, 1, 0.00157635, 0.003638416,        0,     100,     100,     100, 0, 0, 0, 0, 1, 1, 0, 1, 1, 0, 1, 0, 1, 0, 1
    55,     56, 1, 0.001083806, 0.002501575,        0,     100,     100,     100, 0, 0, 0, 0, 1, 1, 0, 1, 1, 0, 1, 0, 1, 0, 1
    53,     57, 1, 0.005713611, 0.01318946,        0,     100,     100,     100, 0, 0, 0, 0, 1, 1, 0, 1, 1, 0, 1, 0, 1, 0, 1
    57,     58, 1, 0.01343625, 0.007067843,        0,     100,     100,     100, 0, 0, 0, 0, 1, 1, 0, 1, 1, 0, 1, 0, 1, 0, 1
    58,     59, 1, 0.02189614, 0.01151754,        0,     100,     100,     100, 0, 0, 0, 0, 1, 1, 0, 1, 1, 0, 1, 0, 1, 0, 1
    59,     60, 1, 0.02637471, 0.01387366,        0,     100,     100,     100, 0, 0, 0, 0, 1, 1, 0, 1, 1, 0, 1, 0, 1, 0, 1
    60,     61, 1, 0.01741756, 0.009161941,        0,     100,     100,     100, 0, 0, 0, 0, 1, 1, 0, 1, 1, 0, 1, 0, 1, 0, 1
    61,     62, 1, 0.01094781, 0.005758769,        0,     100,     100,     100, 0, 0, 0, 0, 1, 1, 0, 1, 1, 0, 1, 0, 1, 0, 1
    48,     63, 1, 0.007289435, 0.01682787,        0,     100,     100,     100, 0, 0, 0, 0, 1, 1, 0, 1, 1, 0, 1, 0, 1, 0, 1
     1,     64, 1, 0.0003938248, 0.0009094728,        0,     100,     100,     100, 0, 0, 0, 0, 1, 1, 0, 1, 1, 0, 1, 0, 1, 0, 1
    64,     65, 1, 0.01418505, 0.03274627,        0,     100,     100,     100, 0, 0, 0, 0, 1, 1, 0, 1, 1, 0, 1, 0, 1, 0, 1
    65,     66, 1, 0.02009557, 0.04639046,        0,     100,     100,     100, 0, 0, 0, 0, 1, 1, 0, 1, 1, 0, 1, 0, 1, 0, 1
    66,     67, 1, 0.01733774, 0.0400231,        0,     100,     100,     100, 0, 0, 0, 0, 1, 1, 0, 1, 1, 0, 1, 0, 1, 0, 1
    67,     68, 1, 0.01723903, 0.03979574,        0,     100,     100,     100, 0, 0, 0, 0, 1, 1, 0, 1, 1, 0, 1, 0, 1, 0, 1
    68,     69, 1, 0.008964503, 0.02069366,        0,     100,     100,     100, 0, 0, 0, 0, 1, 1, 0, 1, 1, 0, 1, 0, 1, 0, 1
    69,     70, 1, 0.02936043, 0.01544423,        0,     100,     100,     100, 0, 0, 0, 0, 1, 1, 0, 1, 1, 0, 1, 0, 1, 0, 1
    69,     71, 1, 0.00305398, 0.007049464,        0,     100,     100,     100, 0, 0, 0, 0, 1, 1, 0, 1, 1, 0, 1, 0, 1, 0, 1
    71,     72, 1, 0.03682525, 0.01937093,        0,     100,     100,     100, 0, 0, 0, 0, 1, 1, 0, 1, 1, 0, 1, 0, 1, 0, 1
    72,     73, 1, 0.05374501, 0.02827085,        0,     100,     100,     100, 0, 0, 0, 0, 1, 1, 0, 1, 1, 0, 1, 0, 1, 0, 1
    71,     74, 1, 0.003546524, 0.00818683,        0,     100,     100,     100, 0, 0, 0, 0, 1, 1, 0, 1, 1, 0, 1, 0, 1, 0, 1
    74,     75, 1, 0.069498, 0.02383795,        0,     100,     100,     100, 0, 0, 0, 0, 1, 1, 0, 1, 1, 0, 1, 0, 1, 0, 1
     1,     76, 1, 0.0005912623, 0.001364209,        0,     100,     100,     100, 0, 0, 0, 0, 1, 1, 0, 1, 1, 0, 1, 0, 1, 0, 1
    76,     77, 1, 0.03831968, 0.08846041,        0,     100,     100,     100, 0, 0, 0, 0, 1, 1, 0, 1, 1, 0, 1, 0, 1, 0, 1
    77,     78, 1, 0.01182105, 0.02728838,        0,     100,     100,     100, 0, 0, 0, 0, 1, 1, 0, 1, 1, 0, 1, 0, 1, 0, 1
    78,     79, 1, 0.01093468, 0.02524207,        0,     100,     100,     100, 0, 0, 0, 0, 1, 1, 0, 1, 1, 0, 1, 0, 1, 0, 1
    79,     80, 1, 0.002462718, 0.005685255,        0,     100,     100,     100, 0, 0, 0, 0, 1, 1, 0, 1, 1, 0, 1, 0, 1, 0, 1
    80,     81, 1, 0.03252993, 0.0324811,        0,     100,     100,     100, 0, 0, 0, 0, 1, 1, 0, 1, 1, 0, 1, 0, 1, 0, 1
    81,     82, 1, 0.01787912, 0.01785234,        0,     100,     100,     100, 0, 0, 0, 0, 1, 1, 0, 1, 1, 0, 1, 0, 1, 0, 1
    82,     83, 1, 0.02985822, 0.01570626,        0,     100,     100,     100, 0, 0, 0, 0, 1, 1, 0, 1, 1, 0, 1, 0, 1, 0, 1
    82,     84, 1, 0.00571151, 0.005702583,        0,     100,     100,     100, 0, 0, 0, 0, 1, 1, 0, 1, 1, 0, 1, 0, 1, 0, 1
    84,     85, 1, 0.02985822, 0.01570626,        0,     100,     100,     100, 0, 0, 0, 0, 1, 1, 0, 1, 1, 0, 1, 0, 1, 0, 1
     1,     86, 1, 0.0005912623, 0.001364209,        0,     100,     100,     100, 0, 0, 0, 0, 1, 1, 0, 1, 1, 0, 1, 0, 1, 0, 1
    86,     87, 1, 0.02196755, 0.05071151,        0,     100,     100,     100, 0, 0, 0, 0, 1, 1, 0, 1, 1, 0, 1, 0, 1, 0, 1
    87,     88, 1, 0.005513022, 0.007162886,        0,     100,     100,     100, 0, 0, 0, 0, 1, 1, 0, 1, 1, 0, 1, 0, 1, 0, 1
    87,     89, 1, 0.02305083, 0.05321256,        0,     100,     100,     100, 0, 0, 0, 0, 1, 1, 0, 1, 1, 0, 1, 0, 1, 0, 1
    89,     90, 1, 0.00394875, 0.001354232,        0,     100,     100,     100, 0, 0, 0, 0, 1, 1, 0, 1, 1, 0, 1, 0, 1, 0, 1
    90,     91, 1, 0.004039067, 0.009323671,        0,     100,     100,     100, 0, 0, 0, 0, 1, 1, 0, 1, 1, 0, 1, 0, 1, 0, 1
    91,     92, 1, 0.01743594, 0.04025047,        0,     100,     100,     100, 0, 0, 0, 0, 1, 1, 0, 1, 1, 0, 1, 0, 1, 0, 1
    92,     93, 1, 0.004432892, 0.01023314,        0,     100,     100,     100, 0, 0, 0, 0, 1, 1, 0, 1, 1, 0, 1, 0, 1, 0, 1
    93,     94, 1, 0.006994329, 0.01614577,        0,     100,     100,     100, 0, 0, 0, 0, 1, 1, 0, 1, 1, 0, 1, 0, 1, 0, 1
    94,     95, 1, 0.01539593, 0.01537282,        0,     100,     100,     100, 0, 0, 0, 0, 1, 1, 0, 1, 1, 0, 1, 0, 1, 0, 1
    95,     96, 1, 0.0114225, 0.01140569,        0,     100,     100,     100, 0, 0, 0, 0, 1, 1, 0, 1, 1, 0, 1, 0, 1, 0, 1
    96,     97, 1, 0.01390569, 0.01388521,        0,     100,     100,     100, 0, 0, 0, 0, 1, 1, 0, 1, 1, 0, 1, 0, 1, 0, 1
    94,     98, 1, 0.005417979, 0.01250735,        0,     100,     100,     100, 0, 0, 0, 0, 1, 1, 0, 1, 1, 0, 1, 0, 1, 0, 1
    98,     99, 1, 0.007092523, 0.01637314,        0,     100,     100,     100, 0, 0, 0, 0, 1, 1, 0, 1, 1, 0, 1, 0, 1, 0, 1
     1,    100, 1, 0.0004925436, 0.001136841,        0,     100,     100,     100, 0, 0, 0, 0, 1, 1, 0, 1, 1, 0, 1, 0, 1, 0, 1
   100,    101, 1, 0.008865784, 0.02046629,        0,     100,     100,     100, 0, 0, 0, 0, 1, 1, 0, 1, 1, 0, 1, 0, 1, 0, 1
   101,    102, 1, 0.006206154, 0.0143263,        0,     100,     100,     100, 0, 0, 0, 0, 1, 1, 0, 1, 1, 0, 1, 0, 1, 0, 1
   102,    103, 1, 0.120042, 0.04117517,        0,     100,     100,     100, 0, 0, 0, 0, 1, 1, 0, 1, 1, 0, 1, 0, 1, 0, 1
   102,    104, 1, 0.02393772, 0.0552594,        0,     100,     100,     100, 0, 0, 0, 0, 1, 1, 0, 1, 1, 0, 1, 0, 1, 0, 1
   104,    105, 1, 0.03654694, 0.08436725,        0,     100,     100,     100, 0, 0, 0, 0, 1, 1, 0, 1, 1, 0, 1, 0, 1, 0, 1
   105,    106, 1, 0.02403592, 0.05548677,        0,     100,     100,     100, 0, 0, 0, 0, 1, 1, 0, 1, 1, 0, 1, 0, 1, 0, 1
   106,    107, 1, 0.01065848, 0.01384846,        0,     100,     100,     100, 0, 0, 0, 0, 1, 1, 0, 1, 1, 0, 1, 0, 1, 0, 1
   107,    108, 1, 0.01120983, 0.01456469,        0,     100,     100,     100, 0, 0, 0, 0, 1, 1, 0, 1, 1, 0, 1, 0, 1, 0, 1
   108,    109, 1, 0.02886316, 0.01518273,        0,     100,     100,     100, 0, 0, 0, 0, 1, 1, 0, 1, 1, 0, 1, 0, 1, 0, 1
   109,    110, 1, 0.02836536, 0.01492071,        0,     100,     100,     100, 0, 0, 0, 0, 1, 1, 0, 1, 1, 0, 1, 0, 1, 0, 1
   108,    111, 1, 0.002389204, 0.003103865,        0,     100,     100,     100, 0, 0, 0, 0, 1, 1, 0, 1, 1, 0, 1, 0, 1, 0, 1
   111,    112, 1, 0.02488185, 0.01308864,        0,     100,     100,     100, 0, 0, 0, 0, 1, 1, 0, 1, 1, 0, 1, 0, 1, 0, 1
   112,    113, 1, 0.04528513, 0.02382063,        0,     100,     100,     100, 0, 0, 0, 0, 1, 1, 0, 1, 1, 0, 1, 0, 1, 0, 1
   113,    114, 1, 0.02985822, 0.01570626,        0,     100,     100,     100, 0, 0, 0, 0, 1, 1, 0, 1, 1, 0, 1, 0, 1, 0, 1
   109,    115, 1, 0.04080603, 0.02146503,        0,     100,     100,     100, 0, 0, 0, 0, 1, 1, 0, 1, 1, 0, 1, 0, 1, 0, 1
   115,    116, 1, 0.05673073, 0.02984142,        0,     100,     100,     100, 0, 0, 0, 0, 1, 1, 0, 1, 1, 0, 1, 0, 1, 0, 1
   110,    117, 1, 0.05772579, 0.03036494,        0,     100,     100,     100, 0, 0, 0, 0, 1, 1, 0, 1, 1, 0, 1, 0, 1, 0, 1
   117,    118, 1, 0.02488185, 0.01308864,        0,     100,     100,     100, 0, 0, 0, 0, 1, 1, 0, 1, 1, 0, 1, 0, 1, 0, 1
   105,    119, 1, 0.01694339, 0.03911363,        0,     100,     100,     100, 0, 0, 0, 0, 1, 1, 0, 1, 1, 0, 1, 0, 1, 0, 1
   119,    120, 1, 0.007683785, 0.01773735,        0,     100,     100,     100, 0, 0, 0, 0, 1, 1, 0, 1, 1, 0, 1, 0, 1, 0, 1
   120,    121, 1, 0.006501785, 0.01500893,        0,     100,     100,     100, 0, 0, 0, 0, 1, 1, 0, 1, 1, 0, 1, 0, 1, 0, 1
     1,    122, 1, 0.0005912623, 0.001364209,        0,     100,     100,     100, 0, 0, 0, 0, 1, 1, 0, 1, 1, 0, 1, 0, 1, 0, 1
   122,    123, 1, 0.03408423, 0.078682,        0,     100,     100,     100, 0, 0, 0, 0, 1, 1, 0, 1, 1, 0, 1, 0, 1, 0, 1
   123,    124, 1, 0.002363999, 0.005457887,        0,     100,     100,     100, 0, 0, 0, 0, 1, 1, 0, 1, 1, 0, 1, 0, 1, 0, 1
   124,    125, 1, 0.02764125, 0.009481201,        0,     100,     100,     100, 0, 0, 0, 0, 1, 1, 0, 1, 1, 0, 1, 0, 1, 0, 1
   124,    126, 1, 0.001083806, 0.002501575,        0,     100,     100,     100, 0, 0, 0, 0, 1, 1, 0, 1, 1, 0, 1, 0, 1, 0, 1
   126,    127, 1, 0.02786757, 0.01465921,        0,     100,     100,     100, 0, 0, 0, 0, 1, 1, 0, 1, 1, 0, 1, 0, 1, 0, 1
   126,    128, 1, 0.005122348, 0.01182525,        0,     100,     100,     100, 0, 0, 0, 0, 1, 1, 0, 1, 1, 0, 1, 0, 1, 0, 1
   128,    129, 1, 0.006206154, 0.0143263,        0,     100,     100,     100, 0, 0, 0, 0, 1, 1, 0, 1, 1, 0, 1, 0, 1, 0, 1
   128,    130, 1, 0.007289435, 0.01682787,        0,     100,     100,     100, 0, 0, 0, 0, 1, 1, 0, 1, 1, 0, 1, 0, 1, 0, 1
   130,    131, 1, 0.002265806, 0.005230519,        0,     100,     100,     100, 0, 0, 0, 0, 1, 1, 0, 1, 1, 0, 1, 0, 1, 0, 1
   131,    132, 1, 0.004826717, 0.01114262,        0,     100,     100,     100, 0, 0, 0, 0, 1, 1, 0, 1, 1, 0, 1, 0, 1, 0, 1
   132,    133, 1, 0.00847196, 0.01955682,        0,     100,     100,     100, 0, 0, 0, 0, 1, 1, 0, 1, 1, 0, 1, 0, 1, 0, 1
   133,    134, 1, 0.01986557, 0.01983564,        0,     100,     100,     100, 0, 0, 0, 0, 1, 1, 0, 1, 1, 0, 1, 0, 1, 0, 1
   134,    135, 1, 0.02085906, 0.02082756,        0,     100,     100,     100, 0, 0, 0, 0, 1, 1, 0, 1, 1, 0, 1, 0, 1, 0, 1
   135,    136, 1, 0.01539593, 0.01537282,        0,     100,     100,     100, 0, 0, 0, 0, 1, 1, 0, 1, 1, 0, 1, 0, 1, 0, 1
     8,     74, 1, 0.00689561, 0.0159184,        0,     100,     100,     100, 0, 0, 0, 0, 0, 1, 0, 1, 1, 0, 1, 0, 1, 0, 1
    10,     25, 1, 0.01393405, 0.007329343,        0,     100,     100,     100, 0, 0, 0, 0, 0, 1, 0, 1, 1, 0, 1, 0, 1, 0, 1
    16,     84, 1, 0.00744959, 0.007438563,        0,     100,     100,     100, 0, 0, 0, 0, 0, 1, 0, 1, 1, 0, 1, 0, 1, 0, 1
    39,    136, 1, 0.004469649, 0.004462823,        0,     100,     100,     100, 0, 0, 0, 0, 0, 1, 0, 1, 1, 0, 1, 0, 1, 0, 1
    26,     52, 1, 0.002363999, 0.005457887,        0,     100,     100,     100, 0, 0, 0, 0, 0, 1, 0, 1, 1, 0, 1, 0, 1, 0, 1
    51,     97, 1, 0.00744959, 0.007438563,        0,     100,     100,     100, 0, 0, 0, 0, 0, 1, 0, 1, 1, 0, 1, 0, 1, 0, 1
    56,     99, 1, 0.00744959, 0.007438563,        0,     100,     100,     100, 0, 0, 0, 0, 0, 1, 0, 1, 1, 0, 1, 0, 1, 0, 1
    63,    121, 1, 0.002068893, 0.004775257,        0,     100,     100,     100, 0, 0, 0, 0, 0, 1, 0, 1, 1, 0, 1, 0, 1, 0, 1
    67,     80, 1, 0.006796891, 0.01569103,        0,     100,     100,     100, 0, 0, 0, 0, 0, 1, 0, 1, 1, 0, 1, 0, 1, 0, 1
    80,    132, 1, 0.0008863684, 0.002046839,        0,     100,     100,     100, 0, 0, 0, 0, 0, 1, 0, 1, 1, 0, 1, 0, 1, 0, 1
    85,    136, 1, 0.01741756, 0.009161941,        0,     100,     100,     100, 0, 0, 0, 0, 0, 1, 0, 1, 1, 0, 1, 0, 1, 0, 1
    92,    105, 1, 0.00744959, 0.007438563,        0,     100,     100,     100, 0, 0, 0, 0, 0, 1, 0, 1, 1, 0, 1, 0, 1, 0, 1
    91,    130, 1, 0.004039067, 0.009323671,        0,     100,     100,     100, 0, 0, 0, 0, 0, 1, 0, 1, 1, 0, 1, 0, 1, 0, 1
    91,    104, 1, 0.004039067, 0.009323671,        0,     100,     100,     100, 0, 0, 0, 0, 0, 1, 0, 1, 1, 0, 1, 0, 1, 0, 1
    93,    105, 1, 0.004039067, 0.009323671,        0,     100,     100,     100, 0, 0, 0, 0, 0, 1, 0, 1, 1, 0, 1, 0, 1, 0, 1
    93,    133, 1, 0.004039067, 0.009323671,        0,     100,     100,     100, 0, 0, 0, 0, 0, 1, 0, 1, 1, 0, 1, 0, 1, 0, 1
    97,    121, 1, 0.01390569, 0.01388521,        0,     100,     100,     100, 0, 0, 0, 0, 0, 1, 0, 1, 1, 0, 1, 0, 1, 0, 1
   111,     48, 1, 0.02609536, 0.03390412,        0,     100,     100,     100, 0, 0, 0, 0, 0, 1, 0, 1, 1, 0, 1, 0, 1, 0, 1
   127,     77, 1, 0.008957677, 0.00471172,        0,     100,     100,     100, 0, 0, 0, 0, 0, 1, 0, 1, 1, 0, 1, 0, 1, 0, 1
   129,     78, 1, 0.002758349, 0.00636736,        0,     100,     100,     100, 0, 0, 0, 0, 0, 1, 0, 1, 1, 0, 1, 0, 1, 0, 1
   136,     99, 1, 0.01539593, 0.01537282,        0,     100,     100,     100, 0, 0, 0, 0, 0, 1, 0, 1, 1, 0, 1, 0, 1, 0, 1
0 / END OF BRANCH DATA, BEGIN TRANSFORMER DATA
0 / END OF TRANSFORMER DATA, BEGIN AREA DATA
0 / END OF AREA DATA, BEGIN TWO-TERMINAL DC DATA
0 / END OF TWO-TERMINAL DC DATA, BEGIN VOLTAGE SOURCE CONVERTER DATA
0 / END OF VOLTAGE SOURCE CONVERTER DATA, BEGIN IMPEDANCE CORRECTION DATA
0 / END OF IMPEDANCE CORRECTION DATA, BEGIN MULTI-TERMINAL DC DATA
0 / END OF MULTI-TERMINAL DC DATA, BEGIN MULTI-SECTION LINE DATA
0 / END OF MULTI-SECTION LINE DATA, BEGIN ZONE DATA
0 / END OF ZONE DATA, BEGIN INTER-AREA TRANSFER DATA
0 / END OF INTER-AREA TRANSFER DATA, BEGIN OWNER DATA
0 / END OF OWNER DATA, BEGIN FACTS CONTROL DEVICE DATA
0 / END OF FACTS CONTROL DEVICE DATA, BEGIN SWITCHED SHUNT DATA
0 / END OF SWITCHED SHUNT DATA, BEGIN GNE DEVICE DATA
0 / END OF GNE DEVICE DATA, BEGIN INDUCTION MACHINE DATA
0 / END OF INDUCTION MACHINE DATA
Q
